data/network_1/Feeder_1/Master_allgrounded.dss
Clear
Set DefaultBaseFreq=50
New Circuit.ntw_1_fdr_1 BasekV=0.4 pu=1.00  MVASC3=1e12 MVASC1=1e12
New Reactor.Grounding phases=1 bus1=sourcebus.4 bus2=sourcebus.0 R=0.0 X=1E-10
Redirect standarized_linecodes.dss
Redirect fdr1_Lines.dss
Redirect fdr1_Loads.dss
! Grounding-ablation variant: every load-bus neutral solidly bonded to earth
! (r=0 reactor neutral->earth). Contrast with the base Master.dss, where this
! redirect is commented out and only the source bus is grounded.
Redirect fdr1_groundings.dss

calcvoltagebases
Buscoords network_1_BusCoords.txt
solve
