data/network_1/Feeder_1/fdr1_Lines.dss
! Modified Lines for Feeder 1 with prefix fdr1_

New Line.fdr1_LINE1 Bus1=sourcebus.1.2.3.4 Bus2=fdr1_2.1.2.3.4 phases=4 Linecode=NAYCWY_4x95_SE_50 Length=1.097984517167468 Units=m basefreq=50.0
New Line.fdr1_LINE2 Bus1=fdr1_2.1.2.3.4 Bus2=fdr1_3.1.2.3.4 phases=4 Linecode=NAYCWY_4x95_SE_50 Length=0.11510864432311121 Units=m basefreq=50.0
New Line.fdr1_LINE3 Bus1=fdr1_3.1.2.3.4 Bus2=fdr1_4.1.2.3.4 phases=4 Linecode=NAYCWY_4x95_SE_50 Length=0.10783784122914393 Units=m basefreq=50.0
New Line.fdr1_LINE4 Bus1=fdr1_4.1.2.3.4 Bus2=fdr1_5.1.2.3.4 phases=4 Linecode=NAYCWY_4x95_SE_50 Length=0.09402127421771492 Units=m basefreq=50.0
New Line.fdr1_LINE5 Bus1=fdr1_5.1.2.3.4 Bus2=fdr1_6.1.2.3.4 phases=4 Linecode=NAYCWY_4x95_SE_50 Length=0.14812494725967576 Units=m basefreq=50.0
New Line.fdr1_LINE6 Bus1=fdr1_6.1.2.3.4 Bus2=fdr1_7.1.2.3.4 phases=4 Linecode=NAYCWY_4x95_SE_50 Length=10.086333030393059 Units=m basefreq=50.0
New Line.fdr1_LINE7 Bus1=fdr1_7.1.2.3.4 Bus2=fdr1_8.1.2.3.4 phases=4 Linecode=NAYCWY_4x95_SE_50 Length=0.4517488240144816 Units=m basefreq=50.0
New Line.fdr1_LINE8 Bus1=fdr1_8.1.2.3.4 Bus2=fdr1_9.1.2.3.4 phases=4 Linecode=NAYCWY_4x95_SE_50 Length=0.3759999999892898 Units=m basefreq=50.0
New Line.fdr1_LINE9 Bus1=fdr1_9.1.2.3.4 Bus2=fdr1_10.1.2.3.4 phases=4 Linecode=NAYCWY_4x95_SE_50 Length=0.329965149672397 Units=m basefreq=50.0
New Line.fdr1_LINE10 Bus1=fdr1_10.1.2.3.4 Bus2=fdr1_11.1.2.3.4 phases=4 Linecode=NAYCWY_4x95_SE_50 Length=0.24622144501417015 Units=m basefreq=50.0
New Line.fdr1_LINE11 Bus1=fdr1_11.1.2.3.4 Bus2=fdr1_12.1.2.3.4 phases=4 Linecode=NAYCWY_4x95_SE_50 Length=0.2311406498651744 Units=m basefreq=50.0
New Line.fdr1_LINE12 Bus1=fdr1_12.1.2.3.4 Bus2=fdr1_13.1.2.3.4 phases=4 Linecode=NAYCWY_4x95_SE_50 Length=0.14213022198012032 Units=m basefreq=50.0
New Line.fdr1_LINE13 Bus1=fdr1_13.1.2.3.4 Bus2=fdr1_14.1.2.3.4 phases=4 Linecode=NAYCWY_4x95_SE_50 Length=0.3538375333266507 Units=m basefreq=50.0
New Line.fdr1_LINE14 Bus1=fdr1_14.1.2.3.4 Bus2=fdr1_15.1.2.3.4 phases=4 Linecode=NAYCWY_4x95_SE_50 Length=2.866437684676318 Units=m basefreq=50.0
New Line.fdr1_LINE15 Bus1=fdr1_15.1.4 Bus2=fdr1_16.1.4 phases=2 Linecode=NAYCY_1x16_RE_16 Length=0.09654014712844064 Units=m basefreq=50.0
New Line.fdr1_LINE16 Bus1=fdr1_15.1.2.3.4 Bus2=fdr1_17.1.2.3.4 phases=4 Linecode=NAYCWY_4x95_SE_50 Length=3.476031070047194 Units=m basefreq=50.0
New Line.fdr1_LINE17 Bus1=fdr1_16.1.4 Bus2=fdr1_18.1.4 phases=2 Linecode=NAYCY_1x16_RE_16 Length=0.04404543108453566 Units=m basefreq=50.0
New Line.fdr1_LINE18 Bus1=fdr1_17.1.2.3.4 Bus2=fdr1_19.1.2.3.4 phases=4 Linecode=NAYCWY_4x95_SE_50 Length=0.23916939603305498 Units=m basefreq=50.0
New Line.fdr1_LINE19 Bus1=fdr1_18.1.4 Bus2=fdr1_20.1.4 phases=2 Linecode=NAYCY_1x16_RE_16 Length=0.04617358549688519 Units=m basefreq=50.0
New Line.fdr1_LINE20 Bus1=fdr1_19.1.2.3.4 Bus2=fdr1_21.1.2.3.4 phases=4 Linecode=NAYCWY_4x95_SE_50 Length=0.2685609800299457 Units=m basefreq=50.0
New Line.fdr1_LINE21 Bus1=fdr1_20.1.4 Bus2=fdr1_22.1.4 phases=2 Linecode=NAYCY_1x16_RE_16 Length=0.04197618374136917 Units=m basefreq=50.0
New Line.fdr1_LINE22 Bus1=fdr1_21.1.2.3.4 Bus2=fdr1_23.1.2.3.4 phases=4 Linecode=NAYCWY_4x95_SE_50 Length=0.43726879606290064 Units=m basefreq=50.0
New Line.fdr1_LINE23 Bus1=fdr1_22.1.4 Bus2=fdr1_24.1.4 phases=2 Linecode=NAYCY_1x16_RE_16 Length=0.051244511904474474 Units=m basefreq=50.0
New Line.fdr1_LINE24 Bus1=fdr1_23.1.2.3.4 Bus2=fdr1_25.1.2.3.4 phases=4 Linecode=NAYCWY_4x95_SE_50 Length=0.7954954431045143 Units=m basefreq=50.0
New Line.fdr1_LINE25 Bus1=fdr1_24.1.4 Bus2=fdr1_26.1.4 phases=2 Linecode=NAYCY_1x16_RE_16 Length=0.05590169943749474 Units=m basefreq=50.0
New Line.fdr1_LINE26 Bus1=fdr1_25.1.4 Bus2=fdr1_27.1.4 phases=2 Linecode=NAYCY_1x16_RE_16 Length=5.904857830604666 Units=m basefreq=50.0
New Line.fdr1_LINE27 Bus1=fdr1_25.1.2.3.4 Bus2=fdr1_28.1.2.3.4 phases=4 Linecode=NAYCWY_4x95_SE_50 Length=9.968622422361113 Units=m basefreq=50.0
New Line.fdr1_LINE28 Bus1=fdr1_26.1.4 Bus2=fdr1_29.1.4 phases=2 Linecode=NAYCY_1x16_RE_16 Length=0.054561891451327456 Units=m basefreq=50.0
New Line.fdr1_LINE29 Bus1=fdr1_27.1.4 Bus2=fdr1_30.1.4 phases=2 Linecode=NAYCY_1x16_RE_16 Length=1.6265423449656946 Units=m basefreq=50.0
New Line.fdr1_LINE30 Bus1=fdr1_27.1.4 Bus2=fdr1_31.1.4 phases=2 Linecode=NAYCY_1x16_RE_16 Length=1.5847097525903022 Units=m basefreq=50.0
New Line.fdr1_LINE31 Bus1=fdr1_28.1.2.3.4 Bus2=fdr1_32.1.2.3.4 phases=4 Linecode=NAYCWY_4x95_SE_50 Length=2.6538278014816066 Units=m basefreq=50.0
New Line.fdr1_LINE32 Bus1=fdr1_29.1.4 Bus2=fdr1_33.1.4 phases=2 Linecode=NAYCY_1x16_RE_16 Length=0.14629422410473547 Units=m basefreq=50.0
New Line.fdr1_LINE33 Bus1=fdr1_30.1.4 Bus2=fdr1_34.1.4 phases=2 Linecode=NAYCY_1x16_RE_16 Length=3.7247979811170167 Units=m basefreq=50.0
New Line.fdr1_LINE34 Bus1=fdr1_31.1.4 Bus2=fdr1_35.1.4 phases=2 Linecode=NAYCY_1x16_RE_16 Length=0.05366563148394371 Units=m basefreq=50.0
New Line.fdr1_LINE35 Bus1=fdr1_32.2.4 Bus2=fdr1_36.2.4 phases=2 Linecode=NAYCY_1x16_RE_16 Length=5.726519208903624 Units=m basefreq=50.0
New Line.fdr1_LINE36 Bus1=fdr1_32.1.2.3.4 Bus2=fdr1_37.1.2.3.4 phases=4 Linecode=NAYCWY_4x95_SE_50 Length=8.024414807345488 Units=m basefreq=50.0
New Line.fdr1_LINE37 Bus1=fdr1_33.1.4 Bus2=fdr1_38.1.4 phases=2 Linecode=NAYCY_1x16_RE_16 Length=0.13648443130583165 Units=m basefreq=50.0
New Line.fdr1_LINE38 Bus1=fdr1_35.1.4 Bus2=fdr1_39.1.4 phases=2 Linecode=NAYCY_1x16_RE_16 Length=0.07716216686033704 Units=m basefreq=50.0
New Line.fdr1_LINE39 Bus1=fdr1_36.2.4 Bus2=fdr1_40.2.4 phases=2 Linecode=NAYCY_1x16_RE_16 Length=0.4000390605894546 Units=m basefreq=50.0
New Line.fdr1_LINE40 Bus1=fdr1_36.2.4 Bus2=fdr1_41.2.4 phases=2 Linecode=NAYCY_1x16_RE_16 Length=1.8063247908463118 Units=m basefreq=50.0
New Line.fdr1_LINE41 Bus1=fdr1_37.1.2.3.4 Bus2=fdr1_42.1.2.3.4 phases=4 Linecode=NAYCWY_4x95_SE_50 Length=5.568439637797822 Units=m basefreq=50.0
New Line.fdr1_LINE42 Bus1=fdr1_37.1.2.3.4 Bus2=fdr1_43.1.2.3.4 phases=4 Linecode=NAYCWY_4x95_SE_50 Length=0.21674870240743344 Units=m basefreq=50.0
New Line.fdr1_LINE43 Bus1=fdr1_38.1.4 Bus2=fdr1_44.1.4 phases=2 Linecode=NAYCY_1x16_RE_16 Length=0.03383784864052869 Units=m basefreq=50.0
New Line.fdr1_LINE44 Bus1=fdr1_39.1.4 Bus2=fdr1_45.1.4 phases=2 Linecode=NAYCY_1x16_RE_16 Length=0.09895453504204225 Units=m basefreq=50.0
New Line.fdr1_LINE45 Bus1=fdr1_40.2.4 Bus2=fdr1_46.2.4 phases=2 Linecode=NAYCY_1x16_RE_16 Length=0.18031361568454818 Units=m basefreq=50.0
New Line.fdr1_LINE46 Bus1=fdr1_41.2.4 Bus2=fdr1_47.2.4 phases=2 Linecode=NAYCY_1x16_RE_16 Length=4.346277142561159 Units=m basefreq=50.0
New Line.fdr1_LINE47 Bus1=fdr1_42.1.2.3.4 Bus2=fdr1_48.1.2.3.4 phases=4 Linecode=NAYCWY_4x95_SE_50 Length=4.2077540327589515 Units=m basefreq=50.0
New Line.fdr1_LINE48 Bus1=fdr1_43.1.2.3.4 Bus2=fdr1_49.1.2.3.4 phases=4 Linecode=NAYCWY_4x95_SE_50 Length=0.10435516277230357 Units=m basefreq=50.0
New Line.fdr1_LINE49 Bus1=fdr1_44.1.4 Bus2=fdr1_50.1.4 phases=2 Linecode=NAYCY_1x16_RE_16 Length=0.04810405386171317 Units=m basefreq=50.0
New Line.fdr1_LINE50 Bus1=fdr1_45.1.4 Bus2=fdr1_51.1.4 phases=2 Linecode=NAYCY_1x16_RE_16 Length=0.24099999997997656 Units=m basefreq=50.0
New Line.fdr1_LINE51 Bus1=fdr1_46.2.4 Bus2=fdr1_52.2.4 phases=2 Linecode=NAYCY_1x16_RE_16 Length=0.1910863679235632 Units=m basefreq=50.0
New Line.fdr1_LINE52 Bus1=fdr1_48.1.2.3.4 Bus2=fdr1_53.1.2.3.4 phases=4 Linecode=NAYCWY_4x95_SE_50 Length=0.6066836077927124 Units=m basefreq=50.0
New Line.fdr1_LINE53 Bus1=fdr1_48.1.2.3.4 Bus2=fdr1_54.1.2.3.4 phases=4 Linecode=NAYCWY_4x95_SE_50 Length=0.6394888583713818 Units=m basefreq=50.0
New Line.fdr1_LINE54 Bus1=fdr1_49.1.2.3.4 Bus2=fdr1_55.1.2.3.4 phases=4 Linecode=NAYCWY_4x95_SE_50 Length=0.11624973117218225 Units=m basefreq=50.0
New Line.fdr1_LINE55 Bus1=fdr1_50.1.4 Bus2=fdr1_56.1.4 phases=2 Linecode=NAYCY_1x16_RE_16 Length=0.08766413180562523 Units=m basefreq=50.0
New Line.fdr1_LINE56 Bus1=fdr1_51.1.4 Bus2=fdr1_57.1.4 phases=2 Linecode=NAYCY_1x16_RE_16 Length=0.20634437238701595 Units=m basefreq=50.0
New Line.fdr1_LINE57 Bus1=fdr1_52.2.4 Bus2=fdr1_58.2.4 phases=2 Linecode=NAYCY_1x16_RE_16 Length=0.18199999997159466 Units=m basefreq=50.0
New Line.fdr1_LINE58 Bus1=fdr1_53.1.2.3.4 Bus2=fdr1_59.1.2.3.4 phases=4 Linecode=NAYCWY_4x95_SE_50 Length=2.748075144539623 Units=m basefreq=50.0
New Line.fdr1_LINE59 Bus1=fdr1_54.1.2.3.4 Bus2=fdr1_60.1.2.3.4 phases=4 Linecode=NAYCWY_4x95_SE_50 Length=0.06536818798230074 Units=m basefreq=50.0
New Line.fdr1_LINE60 Bus1=fdr1_55.1.2.3.4 Bus2=fdr1_61.1.2.3.4 phases=4 Linecode=NAYCWY_4x95_SE_50 Length=0.10028459501645745 Units=m basefreq=50.0
New Line.fdr1_LINE61 Bus1=fdr1_56.1.4 Bus2=fdr1_62.1.4 phases=2 Linecode=NAYCY_1x16_RE_16 Length=0.07799999999742095 Units=m basefreq=50.0
New Line.fdr1_LINE62 Bus1=fdr1_57.1.4 Bus2=fdr1_63.1.4 phases=2 Linecode=NAYCY_1x16_RE_16 Length=0.9891177887297298 Units=m basefreq=50.0
New Line.fdr1_LINE63 Bus1=fdr1_58.2.4 Bus2=fdr1_64.2.4 phases=2 Linecode=NAYCY_1x16_RE_16 Length=0.10899999999674037 Units=m basefreq=50.0
New Line.fdr1_LINE64 Bus1=fdr1_59.1.2.3.4 Bus2=fdr1_65.1.2.3.4 phases=4 Linecode=NAYCWY_4x95_SE_50 Length=0.5586787986216091 Units=m basefreq=50.0
New Line.fdr1_LINE65 Bus1=fdr1_59.1.4 Bus2=fdr1_66.1.4 phases=2 Linecode=NAYCY_1x16_RE_16 Length=8.258329734243022 Units=m basefreq=50.0
New Line.fdr1_LINE66 Bus1=fdr1_60.1.2.3.4 Bus2=fdr1_67.1.2.3.4 phases=4 Linecode=NAYCWY_4x95_SE_50 Length=0.0740000000176322 Units=m basefreq=50.0
New Line.fdr1_LINE67 Bus1=fdr1_61.1.2.3.4 Bus2=fdr1_68.1.2.3.4 phases=4 Linecode=NAYCWY_4x95_SE_50 Length=0.09604165766760718 Units=m basefreq=50.0
New Line.fdr1_LINE68 Bus1=fdr1_62.1.4 Bus2=fdr1_69.1.4 phases=2 Linecode=NAYCY_1x16_RE_16 Length=0.08324061509855937 Units=m basefreq=50.0
New Line.fdr1_LINE69 Bus1=fdr1_63.1.4 Bus2=fdr1_70.1.4 phases=2 Linecode=NAYCY_1x16_RE_16 Length=3.4962394082729813 Units=m basefreq=50.0
New Line.fdr1_LINE70 Bus1=fdr1_64.2.4 Bus2=fdr1_71.2.4 phases=2 Linecode=NAYCY_1x16_RE_16 Length=0.2138457387854692 Units=m basefreq=50.0
New Line.fdr1_LINE71 Bus1=fdr1_65.1.2.3.4 Bus2=fdr1_72.1.2.3.4 phases=4 Linecode=NAYCWY_4x95_SE_50 Length=6.600571187370869 Units=m basefreq=50.0
New Line.fdr1_LINE72 Bus1=fdr1_66.1.4 Bus2=fdr1_73.1.4 phases=2 Linecode=NAYCY_1x16_RE_16 Length=4.036557939658072 Units=m basefreq=50.0
New Line.fdr1_LINE73 Bus1=fdr1_66.1.4 Bus2=fdr1_74.1.4 phases=2 Linecode=NAYCY_1x16_RE_16 Length=4.036557939658072 Units=m basefreq=50.0
New Line.fdr1_LINE74 Bus1=fdr1_67.1.2.3.4 Bus2=fdr1_75.1.2.3.4 phases=4 Linecode=NAYCWY_4x95_SE_50 Length=0.17951323069414432 Units=m basefreq=50.0
New Line.fdr1_LINE75 Bus1=fdr1_68.1.2.3.4 Bus2=fdr1_76.1.2.3.4 phases=4 Linecode=NAYCWY_4x95_SE_50 Length=0.23551008466909162 Units=m basefreq=50.0
New Line.fdr1_LINE76 Bus1=fdr1_69.1.4 Bus2=fdr1_77.1.4 phases=2 Linecode=NAYCY_1x16_RE_16 Length=0.38907068764851627 Units=m basefreq=50.0
New Line.fdr1_LINE77 Bus1=fdr1_71.2.4 Bus2=fdr1_78.2.4 phases=2 Linecode=NAYCY_1x16_RE_16 Length=1.0838104077876314 Units=m basefreq=50.0
New Line.fdr1_LINE78 Bus1=fdr1_72.1.2.3.4 Bus2=fdr1_79.1.2.3.4 phases=4 Linecode=NAYCWY_4x95_SE_50 Length=2.300826373311228 Units=m basefreq=50.0
New Line.fdr1_LINE79 Bus1=fdr1_75.1.2.3.4 Bus2=fdr1_80.1.2.3.4 phases=4 Linecode=NAYCWY_4x95_SE_50 Length=0.10361949624928707 Units=m basefreq=50.0
New Line.fdr1_LINE80 Bus1=fdr1_76.1.2.3.4 Bus2=fdr1_81.1.2.3.4 phases=4 Linecode=NAYCWY_4x95_SE_50 Length=0.7468975833276827 Units=m basefreq=50.0
New Line.fdr1_LINE81 Bus1=fdr1_77.1.4 Bus2=fdr1_82.1.4 phases=2 Linecode=NAYCY_1x16_RE_16 Length=0.5108825696735536 Units=m basefreq=50.0
New Line.fdr1_LINE82 Bus1=fdr1_78.2.4 Bus2=fdr1_83.2.4 phases=2 Linecode=NAYCY_1x16_RE_16 Length=4.084018119448084 Units=m basefreq=50.0
New Line.fdr1_LINE83 Bus1=fdr1_79.1.2.3.4 Bus2=fdr1_84.1.2.3.4 phases=4 Linecode=NAYCWY_4x95_SE_50 Length=0.5021085540155872 Units=m basefreq=50.0
New Line.fdr1_LINE84 Bus1=fdr1_80.1.2.3.4 Bus2=fdr1_85.1.2.3.4 phases=4 Linecode=NAYCWY_4x95_SE_50 Length=0.11122050172651647 Units=m basefreq=50.0
New Line.fdr1_LINE85 Bus1=fdr1_81.1.2.3.4 Bus2=fdr1_86.1.2.3.4 phases=4 Linecode=NAYCWY_4x95_SE_50 Length=1.4388398104338067 Units=m basefreq=50.0
New Line.fdr1_LINE86 Bus1=fdr1_82.1.4 Bus2=fdr1_87.1.4 phases=2 Linecode=NAYCY_1x16_RE_16 Length=0.3104464526881984 Units=m basefreq=50.0
New Line.fdr1_LINE87 Bus1=fdr1_84.1.2.3.4 Bus2=fdr1_88.1.2.3.4 phases=4 Linecode=NAYCWY_4x95_SE_50 Length=1.0182067569924536 Units=m basefreq=50.0
New Line.fdr1_LINE88 Bus1=fdr1_85.1.2.3.4 Bus2=fdr1_89.1.2.3.4 phases=4 Linecode=NAYCWY_4x95_SE_50 Length=0.10480458000313018 Units=m basefreq=50.0
New Line.fdr1_LINE89 Bus1=fdr1_86.1.2.3.4 Bus2=fdr1_90.1.2.3.4 phases=4 Linecode=NAYCWY_4x95_SE_50 Length=0.3425113136952163 Units=m basefreq=50.0
New Line.fdr1_LINE90 Bus1=fdr1_87.1.4 Bus2=fdr1_91.1.4 phases=2 Linecode=NAYCY_1x16_RE_16 Length=0.11205802067195543 Units=m basefreq=50.0
New Line.fdr1_LINE91 Bus1=fdr1_88.1.2.3.4 Bus2=fdr1_92.1.2.3.4 phases=4 Linecode=NAYCWY_4x95_SE_50 Length=0.9602135178941715 Units=m basefreq=50.0
New Line.fdr1_LINE92 Bus1=fdr1_90.1.2.3.4 Bus2=fdr1_93.1.2.3.4 phases=4 Linecode=NAYCWY_4x95_SE_50 Length=0.06530696747280186 Units=m basefreq=50.0
New Line.fdr1_LINE93 Bus1=fdr1_91.1.4 Bus2=fdr1_94.1.4 phases=2 Linecode=NAYCY_1x16_RE_16 Length=0.03478505425743452 Units=m basefreq=50.0
New Line.fdr1_LINE94 Bus1=fdr1_92.1.2.3.4 Bus2=fdr1_95.1.2.3.4 phases=4 Linecode=NAYCWY_4x95_SE_50 Length=0.5581057247384528 Units=m basefreq=50.0
New Line.fdr1_LINE95 Bus1=fdr1_93.1.2.3.4 Bus2=fdr1_96.1.2.3.4 phases=4 Linecode=NAYCWY_4x95_SE_50 Length=0.08605230968381107 Units=m basefreq=50.0
New Line.fdr1_LINE96 Bus1=fdr1_94.1.4 Bus2=fdr1_97.1.4 phases=2 Linecode=NAYCY_1x16_RE_16 Length=0.036769552671141965 Units=m basefreq=50.0
New Line.fdr1_LINE97 Bus1=fdr1_95.1.2.3.4 Bus2=fdr1_98.1.2.3.4 phases=4 Linecode=NAYCWY_4x95_SE_50 Length=0.3685919152771198 Units=m basefreq=50.0
New Line.fdr1_LINE98 Bus1=fdr1_96.1.2.3.4 Bus2=fdr1_99.1.2.3.4 phases=4 Linecode=NAYCWY_4x95_SE_50 Length=0.03721558807267251 Units=m basefreq=50.0
New Line.fdr1_LINE99 Bus1=fdr1_97.1.4 Bus2=fdr1_100.1.4 phases=2 Linecode=NAYCY_1x16_RE_16 Length=0.08958794562693666 Units=m basefreq=50.0
New Line.fdr1_LINE100 Bus1=fdr1_98.1.2.3.4 Bus2=fdr1_101.1.2.3.4 phases=4 Linecode=NAYCWY_4x95_SE_50 Length=0.5089174785762555 Units=m basefreq=50.0
New Line.fdr1_LINE101 Bus1=fdr1_99.1.2.3.4 Bus2=fdr1_102.1.2.3.4 phases=4 Linecode=NAYCWY_4x95_SE_50 Length=5.081903285219433 Units=m basefreq=50.0
New Line.fdr1_LINE102 Bus1=fdr1_100.1.4 Bus2=fdr1_103.1.4 phases=2 Linecode=NAYCY_1x16_RE_16 Length=0.2858338677983428 Units=m basefreq=50.0
New Line.fdr1_LINE103 Bus1=fdr1_101.1.2.3.4 Bus2=fdr1_104.1.2.3.4 phases=4 Linecode=NAYCWY_4x95_SE_50 Length=0.288376490057855 Units=m basefreq=50.0
New Line.fdr1_LINE104 Bus1=fdr1_101.1.2.3.4 Bus2=fdr1_105.1.2.3.4 phases=4 Linecode=NAYCWY_4x95_SE_50 Length=0.3360193447165192 Units=m basefreq=50.0
New Line.fdr1_LINE105 Bus1=fdr1_102.1.2.3.4 Bus2=fdr1_106.1.2.3.4 phases=4 Linecode=NAYCWY_4x95_SE_50 Length=0.22108143296807353 Units=m basefreq=50.0
New Line.fdr1_LINE106 Bus1=fdr1_104.1.2.3.4 Bus2=fdr1_107.1.2.3.4 phases=4 Linecode=NAYCWY_4x95_SE_50 Length=0.3488968328888466 Units=m basefreq=50.0
New Line.fdr1_LINE107 Bus1=fdr1_105.1.2.3.4 Bus2=fdr1_108.1.2.3.4 phases=4 Linecode=NAYCWY_4x95_SE_50 Length=0.19053608580761067 Units=m basefreq=50.0
New Line.fdr1_LINE108 Bus1=fdr1_106.1.2.3.4 Bus2=fdr1_109.1.2.3.4 phases=4 Linecode=NAYCWY_4x95_SE_50 Length=0.4508491987121885 Units=m basefreq=50.0
New Line.fdr1_LINE109 Bus1=fdr1_107.1.2.3.4 Bus2=fdr1_110.1.2.3.4 phases=4 Linecode=NAYCWY_4x95_SE_50 Length=0.4044007912962162 Units=m basefreq=50.0
New Line.fdr1_LINE110 Bus1=fdr1_108.1.2.3.4 Bus2=fdr1_111.1.2.3.4 phases=4 Linecode=NAYCWY_4x95_SE_50 Length=7.518198853418397 Units=m basefreq=50.0
New Line.fdr1_LINE111 Bus1=fdr1_109.1.2.3.4 Bus2=fdr1_112.1.2.3.4 phases=4 Linecode=NAYCWY_4x95_SE_50 Length=11.976551298297556 Units=m basefreq=50.0
New Line.fdr1_LINE112 Bus1=fdr1_110.1.2.3.4 Bus2=fdr1_113.1.2.3.4 phases=4 Linecode=NAYCWY_4x95_SE_50 Length=0.6165922477447335 Units=m basefreq=50.0
New Line.fdr1_LINE113 Bus1=fdr1_111.1.2.3.4 Bus2=fdr1_114.1.2.3.4 phases=4 Linecode=NAYCWY_4x95_SE_50 Length=0.7531646566749824 Units=m basefreq=50.0
New Line.fdr1_LINE114 Bus1=fdr1_112.1.2.3.4 Bus2=fdr1_115.1.2.3.4 phases=4 Linecode=NAYCWY_4x95_SE_50 Length=10.661262448670136 Units=m basefreq=50.0
New Line.fdr1_LINE115 Bus1=fdr1_113.1.2.3.4 Bus2=fdr1_116.1.2.3.4 phases=4 Linecode=NAYCWY_4x95_SE_50 Length=0.7927130628670056 Units=m basefreq=50.0
New Line.fdr1_LINE116 Bus1=fdr1_114.1.2.3.4 Bus2=fdr1_117.1.2.3.4 phases=4 Linecode=NAYCWY_4x95_SE_50 Length=1.10558807882421 Units=m basefreq=50.0
New Line.fdr1_LINE117 Bus1=fdr1_114.1.2.3.4 Bus2=fdr1_118.1.2.3.4 phases=4 Linecode=NAYCWY_4x95_SE_50 Length=3.655592975158241 Units=m basefreq=50.0
New Line.fdr1_LINE118 Bus1=fdr1_115.1.2.3.4 Bus2=fdr1_119.1.2.3.4 phases=4 Linecode=NAYCWY_4x95_SE_50 Length=0.9946386278695091 Units=m basefreq=50.0
New Line.fdr1_LINE119 Bus1=fdr1_116.1.2.3.4 Bus2=fdr1_120.1.2.3.4 phases=4 Linecode=NAYCWY_4x95_SE_50 Length=0.569086988059428 Units=m basefreq=50.0
New Line.fdr1_LINE120 Bus1=fdr1_117.1.4 Bus2=fdr1_121.1.4 phases=2 Linecode=NAYCY_1x16_RE_16 Length=0.19481273060237483 Units=m basefreq=50.0
New Line.fdr1_LINE121 Bus1=fdr1_117.1.2.3.4 Bus2=fdr1_122.1.2.3.4 phases=4 Linecode=NAYCWY_4x95_SE_50 Length=0.5383131059143026 Units=m basefreq=50.0
New Line.fdr1_LINE122 Bus1=fdr1_118.1.2.3.4 Bus2=fdr1_123.1.2.3.4 phases=4 Linecode=NAYCWY_4x95_SE_50 Length=6.592350870506305 Units=m basefreq=50.0
New Line.fdr1_LINE123 Bus1=fdr1_119.1.2.3.4 Bus2=fdr1_124.1.2.3.4 phases=4 Linecode=NAYCWY_4x95_SE_50 Length=0.7248013520631026 Units=m basefreq=50.0
New Line.fdr1_LINE124 Bus1=fdr1_120.1.2.3.4 Bus2=fdr1_125.1.2.3.4 phases=4 Linecode=NAYCWY_4x95_SE_50 Length=0.8041218813396942 Units=m basefreq=50.0
New Line.fdr1_LINE125 Bus1=fdr1_121.1.4 Bus2=fdr1_126.1.4 phases=2 Linecode=NAYCY_1x16_RE_16 Length=0.16868906303513323 Units=m basefreq=50.0
New Line.fdr1_LINE126 Bus1=fdr1_122.1.2.3.4 Bus2=fdr1_127.1.2.3.4 phases=4 Linecode=NAYCWY_4x95_SE_50 Length=2.5287619500128753 Units=m basefreq=50.0
New Line.fdr1_LINE127 Bus1=fdr1_123.1.2.3.4 Bus2=fdr1_128.1.2.3.4 phases=4 Linecode=NAYCWY_4x95_SE_50 Length=2.9646048640856657 Units=m basefreq=50.0
New Line.fdr1_LINE128 Bus1=fdr1_124.1.2.3.4 Bus2=fdr1_129.1.2.3.4 phases=4 Linecode=NAYCWY_4x95_SE_50 Length=0.6251151893983006 Units=m basefreq=50.0
New Line.fdr1_LINE129 Bus1=fdr1_125.1.2.3.4 Bus2=fdr1_130.1.2.3.4 phases=4 Linecode=NAYCWY_4x95_SE_50 Length=0.8699959769846427 Units=m basefreq=50.0
New Line.fdr1_LINE130 Bus1=fdr1_126.1.4 Bus2=fdr1_131.1.4 phases=2 Linecode=NAYCY_1x16_RE_16 Length=0.11915116449858185 Units=m basefreq=50.0
New Line.fdr1_LINE131 Bus1=fdr1_127.1.4 Bus2=fdr1_132.1.4 phases=2 Linecode=NAYCY_1x16_RE_16 Length=3.8212060923083095 Units=m basefreq=50.0
New Line.fdr1_LINE132 Bus1=fdr1_127.1.2.3.4 Bus2=fdr1_133.1.2.3.4 phases=4 Linecode=NAYCWY_4x95_SE_50 Length=7.178184310803382 Units=m basefreq=50.0
New Line.fdr1_LINE133 Bus1=fdr1_128.1.2.3.4 Bus2=fdr1_134.1.2.3.4 phases=4 Linecode=NAYCWY_4x95_SE_50 Length=0.8820487514680003 Units=m basefreq=50.0
New Line.fdr1_LINE134 Bus1=fdr1_129.1.2.3.4 Bus2=fdr1_135.1.2.3.4 phases=4 Linecode=NAYCWY_4x95_SE_50 Length=1.9202963313064139 Units=m basefreq=50.0
New Line.fdr1_LINE135 Bus1=fdr1_130.1.2.3.4 Bus2=fdr1_136.1.2.3.4 phases=4 Linecode=NAYCWY_4x95_SE_50 Length=0.820479128296634 Units=m basefreq=50.0
New Line.fdr1_LINE136 Bus1=fdr1_131.1.4 Bus2=fdr1_137.1.4 phases=2 Linecode=NAYCY_1x16_RE_16 Length=0.18435834672202345 Units=m basefreq=50.0
New Line.fdr1_LINE137 Bus1=fdr1_132.1.4 Bus2=fdr1_138.1.4 phases=2 Linecode=NAYCY_1x16_RE_16 Length=0.32907901788547184 Units=m basefreq=50.0
New Line.fdr1_LINE138 Bus1=fdr1_133.1.2.3.4 Bus2=fdr1_139.1.2.3.4 phases=4 Linecode=NAYCWY_4x95_SE_50 Length=5.340242035739304 Units=m basefreq=50.0
New Line.fdr1_LINE139 Bus1=fdr1_134.1.2.3.4 Bus2=fdr1_140.1.2.3.4 phases=4 Linecode=NAYCWY_4x95_SE_50 Length=0.9956590782183674 Units=m basefreq=50.0
New Line.fdr1_LINE140 Bus1=fdr1_135.1.2.3.4 Bus2=fdr1_141.1.2.3.4 phases=4 Linecode=NAYCWY_4x95_SE_50 Length=1.4126630879055302 Units=m basefreq=50.0
New Line.fdr1_LINE141 Bus1=fdr1_136.1.2.3.4 Bus2=fdr1_142.1.2.3.4 phases=4 Linecode=NAYCWY_4x95_SE_50 Length=1.349005930325554 Units=m basefreq=50.0
New Line.fdr1_LINE142 Bus1=fdr1_137.1.4 Bus2=fdr1_143.1.4 phases=2 Linecode=NAYCY_1x16_RE_16 Length=0.21780954982101025 Units=m basefreq=50.0
New Line.fdr1_LINE143 Bus1=fdr1_138.1.4 Bus2=fdr1_144.1.4 phases=2 Linecode=NAYCY_1x16_RE_16 Length=0.3228931711853875 Units=m basefreq=50.0
New Line.fdr1_LINE144 Bus1=fdr1_139.1.2.3.4 Bus2=fdr1_145.1.2.3.4 phases=4 Linecode=NAYCWY_4x95_SE_50 Length=3.576232235208896 Units=m basefreq=50.0
New Line.fdr1_LINE145 Bus1=fdr1_140.1.2.3.4 Bus2=fdr1_146.1.2.3.4 phases=4 Linecode=NAYCWY_4x95_SE_50 Length=0.9364000213061484 Units=m basefreq=50.0
New Line.fdr1_LINE146 Bus1=fdr1_141.1.2.3.4 Bus2=fdr1_147.1.2.3.4 phases=4 Linecode=NAYCWY_4x95_SE_50 Length=0.24053274204489075 Units=m basefreq=50.0
New Line.fdr1_LINE147 Bus1=fdr1_142.1.2.3.4 Bus2=fdr1_148.1.2.3.4 phases=4 Linecode=NAYCWY_4x95_SE_50 Length=6.414200807587817 Units=m basefreq=50.0
New Line.fdr1_LINE148 Bus1=fdr1_143.1.4 Bus2=fdr1_149.1.4 phases=2 Linecode=NAYCY_1x16_RE_16 Length=0.19401030899911598 Units=m basefreq=50.0
New Line.fdr1_LINE149 Bus1=fdr1_144.1.4 Bus2=fdr1_150.1.4 phases=2 Linecode=NAYCY_1x16_RE_16 Length=0.26071669296253086 Units=m basefreq=50.0
New Line.fdr1_LINE150 Bus1=fdr1_145.1.2.3.4 Bus2=fdr1_151.1.2.3.4 phases=4 Linecode=NAYCWY_4x95_SE_50 Length=3.5712726022999917 Units=m basefreq=50.0
New Line.fdr1_LINE151 Bus1=fdr1_145.2.4 Bus2=fdr1_152.2.4 phases=2 Linecode=NAYCY_1x16_RE_16 Length=5.131445215527973 Units=m basefreq=50.0
New Line.fdr1_LINE152 Bus1=fdr1_146.1.2.3.4 Bus2=fdr1_153.1.2.3.4 phases=4 Linecode=NAYCWY_4x95_SE_50 Length=1.0926169850847776 Units=m basefreq=50.0
New Line.fdr1_LINE153 Bus1=fdr1_147.1.2.3.4 Bus2=fdr1_154.1.2.3.4 phases=4 Linecode=NAYCWY_4x95_SE_50 Length=0.08309632961658724 Units=m basefreq=50.0
New Line.fdr1_LINE154 Bus1=fdr1_148.1.2.3.4 Bus2=fdr1_155.1.2.3.4 phases=4 Linecode=NAYCWY_4x95_SE_50 Length=1.397300969702842 Units=m basefreq=50.0
New Line.fdr1_LINE155 Bus1=fdr1_149.1.4 Bus2=fdr1_156.1.4 phases=2 Linecode=NAYCY_1x16_RE_16 Length=0.2191004335936847 Units=m basefreq=50.0
New Line.fdr1_LINE156 Bus1=fdr1_150.1.4 Bus2=fdr1_157.1.4 phases=2 Linecode=NAYCY_1x16_RE_16 Length=0.3913219697870452 Units=m basefreq=50.0
New Line.fdr1_LINE157 Bus1=fdr1_151.1.2.3.4 Bus2=fdr1_158.1.2.3.4 phases=4 Linecode=NAYCWY_4x95_SE_50 Length=9.47132266366635 Units=m basefreq=50.0
New Line.fdr1_LINE158 Bus1=fdr1_152.2.4 Bus2=fdr1_159.2.4 phases=2 Linecode=NAYCY_1x16_RE_16 Length=0.31233475630625174 Units=m basefreq=50.0
New Line.fdr1_LINE159 Bus1=fdr1_153.1.2.3.4 Bus2=fdr1_160.1.2.3.4 phases=4 Linecode=NAYCWY_4x95_SE_50 Length=0.3143919242184021 Units=m basefreq=50.0
New Line.fdr1_LINE160 Bus1=fdr1_154.1.2.3.4 Bus2=fdr1_161.1.2.3.4 phases=4 Linecode=NAYCWY_4x95_SE_50 Length=0.12256018929020826 Units=m basefreq=50.0
New Line.fdr1_LINE161 Bus1=fdr1_155.2.4 Bus2=fdr1_162.2.4 phases=2 Linecode=NAYCY_1x16_RE_16 Length=11.742233560997104 Units=m basefreq=50.0
New Line.fdr1_LINE162 Bus1=fdr1_155.1.2.3.4 Bus2=fdr1_163.1.2.3.4 phases=4 Linecode=NAYCWY_4x95_SE_50 Length=5.284447464019849 Units=m basefreq=50.0
New Line.fdr1_LINE163 Bus1=fdr1_156.1.4 Bus2=fdr1_164.1.4 phases=2 Linecode=NAYCY_1x16_RE_16 Length=0.2034158302463539 Units=m basefreq=50.0
New Line.fdr1_LINE164 Bus1=fdr1_157.1.4 Bus2=fdr1_165.1.4 phases=2 Linecode=NAYCY_1x16_RE_16 Length=0.4717848216841189 Units=m basefreq=50.0
New Line.fdr1_LINE165 Bus1=fdr1_158.1.2.3.4 Bus2=fdr1_166.1.2.3.4 phases=4 Linecode=NAYCWY_4x95_SE_50 Length=3.289854708080344 Units=m basefreq=50.0
New Line.fdr1_LINE166 Bus1=fdr1_159.2.4 Bus2=fdr1_167.2.4 phases=2 Linecode=NAYCY_1x16_RE_16 Length=0.28532963393995425 Units=m basefreq=50.0
New Line.fdr1_LINE167 Bus1=fdr1_160.1.2.3.4 Bus2=fdr1_168.1.2.3.4 phases=4 Linecode=NAYCWY_4x95_SE_50 Length=1.7861377326375072 Units=m basefreq=50.0
New Line.fdr1_LINE168 Bus1=fdr1_161.1.2.3.4 Bus2=fdr1_169.1.2.3.4 phases=4 Linecode=NAYCWY_4x95_SE_50 Length=0.24957563986372686 Units=m basefreq=50.0
New Line.fdr1_LINE169 Bus1=fdr1_162.2.4 Bus2=fdr1_170.2.4 phases=2 Linecode=NAYCY_1x16_RE_16 Length=2.218288754865212 Units=m basefreq=50.0
New Line.fdr1_LINE170 Bus1=fdr1_163.1.2.3.4 Bus2=fdr1_171.1.2.3.4 phases=4 Linecode=NAYCWY_4x95_SE_50 Length=7.01556811669022 Units=m basefreq=50.0
New Line.fdr1_LINE171 Bus1=fdr1_164.1.4 Bus2=fdr1_172.1.4 phases=2 Linecode=NAYCY_1x16_RE_16 Length=0.17269916042278113 Units=m basefreq=50.0
New Line.fdr1_LINE172 Bus1=fdr1_165.1.4 Bus2=fdr1_173.1.4 phases=2 Linecode=NAYCY_1x16_RE_16 Length=0.3564171067715048 Units=m basefreq=50.0
New Line.fdr1_LINE173 Bus1=fdr1_166.1.2.3.4 Bus2=fdr1_174.1.2.3.4 phases=4 Linecode=NAYCWY_4x95_SE_50 Length=3.918261349119405 Units=m basefreq=50.0
New Line.fdr1_LINE174 Bus1=fdr1_166.3.4 Bus2=fdr1_175.3.4 phases=2 Linecode=NAYCY_1x16_RE_16 Length=4.204472142847062 Units=m basefreq=50.0
New Line.fdr1_LINE175 Bus1=fdr1_167.2.4 Bus2=fdr1_176.2.4 phases=2 Linecode=NAYCY_1x16_RE_16 Length=0.11853269589155603 Units=m basefreq=50.0
New Line.fdr1_LINE176 Bus1=fdr1_168.1.2.3.4 Bus2=fdr1_177.1.2.3.4 phases=4 Linecode=NAYCWY_4x95_SE_50 Length=1.0087863995551882 Units=m basefreq=50.0
New Line.fdr1_LINE177 Bus1=fdr1_170.2.4 Bus2=fdr1_178.2.4 phases=2 Linecode=NAYCY_1x16_RE_16 Length=4.576801175480633 Units=m basefreq=50.0
New Line.fdr1_LINE178 Bus1=fdr1_171.1.2.3.4 Bus2=fdr1_179.1.2.3.4 phases=4 Linecode=NAYCWY_4x95_SE_50 Length=1.1817901675295135 Units=m basefreq=50.0
New Line.fdr1_LINE179 Bus1=fdr1_171.3.4 Bus2=fdr1_180.3.4 phases=2 Linecode=NAYCY_1x16_RE_16 Length=2.4224213093162734 Units=m basefreq=50.0
New Line.fdr1_LINE180 Bus1=fdr1_172.1.4 Bus2=fdr1_181.1.4 phases=2 Linecode=NAYCY_1x16_RE_16 Length=0.17961069006617836 Units=m basefreq=50.0
New Line.fdr1_LINE181 Bus1=fdr1_173.1.4 Bus2=fdr1_182.1.4 phases=2 Linecode=NAYCY_1x16_RE_16 Length=0.4124427233350198 Units=m basefreq=50.0
New Line.fdr1_LINE182 Bus1=fdr1_174.1.2.3.4 Bus2=fdr1_183.1.2.3.4 phases=4 Linecode=NAYCWY_4x95_SE_50 Length=0.5876265821119108 Units=m basefreq=50.0
New Line.fdr1_LINE183 Bus1=fdr1_175.3.4 Bus2=fdr1_184.3.4 phases=2 Linecode=NAYCY_1x16_RE_16 Length=0.45409360268497484 Units=m basefreq=50.0
New Line.fdr1_LINE184 Bus1=fdr1_176.2.4 Bus2=fdr1_185.2.4 phases=2 Linecode=NAYCY_1x16_RE_16 Length=0.2554936398325435 Units=m basefreq=50.0
New Line.fdr1_LINE185 Bus1=fdr1_177.1.2.3.4 Bus2=fdr1_186.1.2.3.4 phases=4 Linecode=NAYCWY_4x95_SE_50 Length=0.7488584646400658 Units=m basefreq=50.0
New Line.fdr1_LINE186 Bus1=fdr1_179.1.2.3.4 Bus2=fdr1_187.1.2.3.4 phases=4 Linecode=NAYCWY_4x95_SE_50 Length=4.650705860360539 Units=m basefreq=50.0
New Line.fdr1_LINE187 Bus1=fdr1_180.3.4 Bus2=fdr1_188.3.4 phases=2 Linecode=NAYCY_1x16_RE_16 Length=10.025848692306896 Units=m basefreq=50.0
New Line.fdr1_LINE188 Bus1=fdr1_181.1.4 Bus2=fdr1_189.1.4 phases=2 Linecode=NAYCY_1x16_RE_16 Length=0.1541168388351189 Units=m basefreq=50.0
New Line.fdr1_LINE189 Bus1=fdr1_182.1.4 Bus2=fdr1_190.1.4 phases=2 Linecode=NAYCY_1x16_RE_16 Length=0.38780020625949085 Units=m basefreq=50.0
New Line.fdr1_LINE190 Bus1=fdr1_183.1.2.3.4 Bus2=fdr1_191.1.2.3.4 phases=4 Linecode=NAYCWY_4x95_SE_50 Length=2.3151406004652424 Units=m basefreq=50.0
New Line.fdr1_LINE191 Bus1=fdr1_183.1.2.3.4 Bus2=fdr1_192.1.2.3.4 phases=4 Linecode=NAYCWY_4x95_SE_50 Length=0.2779136556501091 Units=m basefreq=50.0
New Line.fdr1_LINE192 Bus1=fdr1_184.3.4 Bus2=fdr1_193.3.4 phases=2 Linecode=NAYCY_1x16_RE_16 Length=0.43923228480563264 Units=m basefreq=50.0
New Line.fdr1_LINE193 Bus1=fdr1_185.2.4 Bus2=fdr1_194.2.4 phases=2 Linecode=NAYCY_1x16_RE_16 Length=0.6507303589327998 Units=m basefreq=50.0
New Line.fdr1_LINE194 Bus1=fdr1_186.1.2.3.4 Bus2=fdr1_195.1.2.3.4 phases=4 Linecode=NAYCWY_4x95_SE_50 Length=0.6732607221014892 Units=m basefreq=50.0
New Line.fdr1_LINE195 Bus1=fdr1_187.1.2.3.4 Bus2=fdr1_196.1.2.3.4 phases=4 Linecode=NAYCWY_4x95_SE_50 Length=8.303619692677264 Units=m basefreq=50.0
New Line.fdr1_LINE196 Bus1=fdr1_188.3.4 Bus2=fdr1_197.3.4 phases=2 Linecode=NAYCY_1x16_RE_16 Length=1.9594859019295578 Units=m basefreq=50.0
New Line.fdr1_LINE197 Bus1=fdr1_188.3.4 Bus2=fdr1_198.3.4 phases=2 Linecode=NAYCY_1x16_RE_16 Length=1.1325250549261214 Units=m basefreq=50.0
New Line.fdr1_LINE198 Bus1=fdr1_189.1.4 Bus2=fdr1_199.1.4 phases=2 Linecode=NAYCY_1x16_RE_16 Length=0.19148106955635247 Units=m basefreq=50.0
New Line.fdr1_LINE199 Bus1=fdr1_190.1.4 Bus2=fdr1_200.1.4 phases=2 Linecode=NAYCY_1x16_RE_16 Length=0.4172529209180228 Units=m basefreq=50.0
New Line.fdr1_LINE200 Bus1=fdr1_191.1.2.3.4 Bus2=fdr1_201.1.2.3.4 phases=4 Linecode=NAYCWY_4x95_SE_50 Length=0.9314016319772399 Units=m basefreq=50.0
...
