data/network_1/Feeder_1/fdr1_Loads.dss
! Modified Loads for Feeder 1 with prefix fdr1_

! Imported from Loads.txt, with modified neutral terminal
! ---------------------------------------------------------------------------
New Load.fdr1_LOAD1 Phases=1 Bus1=fdr1_34.1.4 kV=0.23 kW=1  PF=0.95
New Load.fdr1_LOAD2 Phases=1 Bus1=fdr1_47.2.4 kV=0.23 kW=1  PF=0.95
New Load.fdr1_LOAD3 Phases=1 Bus1=fdr1_70.1.4 kV=0.23 kW=1  PF=0.95
New Load.fdr1_LOAD4 Phases=1 Bus1=fdr1_73.1.4 kV=0.23 kW=1  PF=0.95
New Load.fdr1_LOAD5 Phases=1 Bus1=fdr1_74.1.4 kV=0.23 kW=1  PF=0.95
New Load.fdr1_LOAD6 Phases=1 Bus1=fdr1_83.2.4 kV=0.23 kW=1  PF=0.95
New Load.fdr1_LOAD7 Phases=1 Bus1=fdr1_178.2.4 kV=0.23 kW=1  PF=0.95
New Load.fdr1_LOAD8 Phases=1 Bus1=fdr1_208.3.4 kV=0.23 kW=1  PF=0.95
New Load.fdr1_LOAD9 Phases=1 Bus1=fdr1_225.1.4 kV=0.23 kW=1  PF=0.95
New Load.fdr1_LOAD10 Phases=1 Bus1=fdr1_248.2.4 kV=0.23 kW=1  PF=0.95
New Load.fdr1_LOAD11 Phases=1 Bus1=fdr1_249.2.4 kV=0.23 kW=1  PF=0.95
New Load.fdr1_LOAD12 Phases=1 Bus1=fdr1_264.3.4 kV=0.23 kW=1  PF=0.95
New Load.fdr1_LOAD13 Phases=1 Bus1=fdr1_276.2.4 kV=0.23 kW=1  PF=0.95
New Load.fdr1_LOAD14 Phases=1 Bus1=fdr1_289.1.4 kV=0.23 kW=1  PF=0.95
New Load.fdr1_LOAD15 Phases=1 Bus1=fdr1_314.2.4 kV=0.23 kW=1  PF=0.95
New Load.fdr1_LOAD16 Phases=1 Bus1=fdr1_320.3.4 kV=0.23 kW=1  PF=0.95
New Load.fdr1_LOAD17 Phases=1 Bus1=fdr1_327.3.4 kV=0.23 kW=1  PF=0.95
New Load.fdr1_LOAD18 Phases=1 Bus1=fdr1_337.3.4 kV=0.23 kW=1  PF=0.95
New Load.fdr1_LOAD19 Phases=1 Bus1=fdr1_342.3.4 kV=0.23 kW=1  PF=0.95
New Load.fdr1_LOAD20 Phases=1 Bus1=fdr1_349.1.4 kV=0.23 kW=1  PF=0.95
New Load.fdr1_LOAD21 Phases=1 Bus1=fdr1_387.1.4 kV=0.23 kW=1  PF=0.95
New Load.fdr1_LOAD22 Phases=1 Bus1=fdr1_388.1.4 kV=0.23 kW=1  PF=0.95
New Load.fdr1_LOAD23 Phases=1 Bus1=fdr1_406.2.4 kV=0.23 kW=1  PF=0.95
New Load.fdr1_LOAD24 Phases=1 Bus1=fdr1_458.3.4 kV=0.23 kW=1  PF=0.95
New Load.fdr1_LOAD25 Phases=1 Bus1=fdr1_502.1.4 kV=0.23 kW=1  PF=0.95
New Load.fdr1_LOAD26 Phases=1 Bus1=fdr1_522.2.4 kV=0.23 kW=1  PF=0.95
New Load.fdr1_LOAD27 Phases=1 Bus1=fdr1_539.3.4 kV=0.23 kW=1  PF=0.95
New Load.fdr1_LOAD28 Phases=1 Bus1=fdr1_556.3.4 kV=0.23 kW=1  PF=0.95
New Load.fdr1_LOAD29 Phases=1 Bus1=fdr1_562.1.4 kV=0.23 kW=1  PF=0.95
New Load.fdr1_LOAD30 Phases=1 Bus1=fdr1_563.1.4 kV=0.23 kW=1  PF=0.95
New Load.fdr1_LOAD31 Phases=1 Bus1=fdr1_611.1.4 kV=0.23 kW=1  PF=0.95
New Load.fdr1_LOAD32 Phases=1 Bus1=fdr1_614.3.4 kV=0.23 kW=1  PF=0.95
New Load.fdr1_LOAD33 Phases=1 Bus1=fdr1_619.3.4 kV=0.23 kW=1  PF=0.95
New Load.fdr1_LOAD34 Phases=1 Bus1=fdr1_629.1.4 kV=0.23 kW=1  PF=0.95
New Load.fdr1_LOAD35 Phases=1 Bus1=fdr1_639.2.4 kV=0.23 kW=1  PF=0.95
New Load.fdr1_LOAD36 Phases=1 Bus1=fdr1_676.2.4 kV=0.23 kW=1  PF=0.95
New Load.fdr1_LOAD37 Phases=1 Bus1=fdr1_682.2.4 kV=0.23 kW=1  PF=0.95
New Load.fdr1_LOAD38 Phases=1 Bus1=fdr1_688.2.4 kV=0.23 kW=1  PF=0.95
New Load.fdr1_LOAD39 Phases=1 Bus1=fdr1_701.3.4 kV=0.23 kW=1  PF=0.95
New Load.fdr1_LOAD40 Phases=1 Bus1=fdr1_702.2.4 kV=0.23 kW=1  PF=0.95
New Load.fdr1_LOAD41 Phases=1 Bus1=fdr1_755.2.4 kV=0.23 kW=1  PF=0.95
New Load.fdr1_LOAD42 Phases=1 Bus1=fdr1_778.3.4 kV=0.23 kW=1  PF=0.95
New Load.fdr1_LOAD43 Phases=1 Bus1=fdr1_780.3.4 kV=0.23 kW=1  PF=0.95
New Load.fdr1_LOAD44 Phases=1 Bus1=fdr1_785.2.4 kV=0.23 kW=1  PF=0.95
New Load.fdr1_LOAD45 Phases=1 Bus1=fdr1_813.2.4 kV=0.23 kW=1  PF=0.95
New Load.fdr1_LOAD46 Phases=1 Bus1=fdr1_817.1.4 kV=0.23 kW=1  PF=0.95
New Load.fdr1_LOAD47 Phases=1 Bus1=fdr1_835.3.4 kV=0.23 kW=1  PF=0.95
New Load.fdr1_LOAD48 Phases=1 Bus1=fdr1_860.1.4 kV=0.23 kW=1  PF=0.95
New Load.fdr1_LOAD49 Phases=1 Bus1=fdr1_861.1.4 kV=0.23 kW=1  PF=0.95
New Load.fdr1_LOAD50 Phases=1 Bus1=fdr1_886.2.4 kV=0.23 kW=1  PF=0.95
New Load.fdr1_LOAD51 Phases=1 Bus1=fdr1_896.1.4 kV=0.23 kW=1  PF=0.95
New Load.fdr1_LOAD52 Phases=1 Bus1=fdr1_898.1.4 kV=0.23 kW=1  PF=0.95
New Load.fdr1_LOAD53 Phases=1 Bus1=fdr1_899.2.4 kV=0.23 kW=1  PF=0.95
New Load.fdr1_LOAD54 Phases=1 Bus1=fdr1_900.1.4 kV=0.23 kW=1  PF=0.95
New Load.fdr1_LOAD55 Phases=1 Bus1=fdr1_906.1.4 kV=0.23 kW=1  PF=0.95
! ---------------------------------------------------------------------------