data/network_1/Feeder_1/fdr1_groundings.dss
! Load bus groundings for Feeder 1 (zero resistance)
! ---------------------------------------------------------------------------
new reactor.loadbusgrounding_fdr1_34 phases=1 bus1=fdr1_34.4 bus2=fdr1_34.0 r=0.0 x=0.0
new reactor.loadbusgrounding_fdr1_47 phases=1 bus1=fdr1_47.4 bus2=fdr1_47.0 r=0.0 x=0.0
new reactor.loadbusgrounding_fdr1_70 phases=1 bus1=fdr1_70.4 bus2=fdr1_70.0 r=0.0 x=0.0
new reactor.loadbusgrounding_fdr1_73 phases=1 bus1=fdr1_73.4 bus2=fdr1_73.0 r=0.0 x=0.0
new reactor.loadbusgrounding_fdr1_74 phases=1 bus1=fdr1_74.4 bus2=fdr1_74.0 r=0.0 x=0.0
new reactor.loadbusgrounding_fdr1_83 phases=1 bus1=fdr1_83.4 bus2=fdr1_83.0 r=0.0 x=0.0
new reactor.loadbusgrounding_fdr1_178 phases=1 bus1=fdr1_178.4 bus2=fdr1_178.0 r=0.0 x=0.0
new reactor.loadbusgrounding_fdr1_208 phases=1 bus1=fdr1_208.4 bus2=fdr1_208.0 r=0.0 x=0.0
new reactor.loadbusgrounding_fdr1_225 phases=1 bus1=fdr1_225.4 bus2=fdr1_225.0 r=0.0 x=0.0
new reactor.loadbusgrounding_fdr1_248 phases=1 bus1=fdr1_248.4 bus2=fdr1_248.0 r=0.0 x=0.0
new reactor.loadbusgrounding_fdr1_249 phases=1 bus1=fdr1_249.4 bus2=fdr1_249.0 r=0.0 x=0.0
new reactor.loadbusgrounding_fdr1_264 phases=1 bus1=fdr1_264.4 bus2=fdr1_264.0 r=0.0 x=0.0
new reactor.loadbusgrounding_fdr1_276 phases=1 bus1=fdr1_276.4 bus2=fdr1_276.0 r=0.0 x=0.0
new reactor.loadbusgrounding_fdr1_289 phases=1 bus1=fdr1_289.4 bus2=fdr1_289.0 r=0.0 x=0.0
new reactor.loadbusgrounding_fdr1_314 phases=1 bus1=fdr1_314.4 bus2=fdr1_314.0 r=0.0 x=0.0
new reactor.loadbusgrounding_fdr1_320 phases=1 bus1=fdr1_320.4 bus2=fdr1_320.0 r=0.0 x=0.0
new reactor.loadbusgrounding_fdr1_327 phases=1 bus1=fdr1_327.4 bus2=fdr1_327.0 r=0.0 x=0.0
new reactor.loadbusgrounding_fdr1_337 phases=1 bus1=fdr1_337.4 bus2=fdr1_337.0 r=0.0 x=0.0
new reactor.loadbusgrounding_fdr1_342 phases=1 bus1=fdr1_342.4 bus2=fdr1_342.0 r=0.0 x=0.0
new reactor.loadbusgrounding_fdr1_349 phases=1 bus1=fdr1_349.4 bus2=fdr1_349.0 r=0.0 x=0.0
new reactor.loadbusgrounding_fdr1_387 phases=1 bus1=fdr1_387.4 bus2=fdr1_387.0 r=0.0 x=0.0
new reactor.loadbusgrounding_fdr1_388 phases=1 bus1=fdr1_388.4 bus2=fdr1_388.0 r=0.0 x=0.0
new reactor.loadbusgrounding_fdr1_406 phases=1 bus1=fdr1_406.4 bus2=fdr1_406.0 r=0.0 x=0.0
new reactor.loadbusgrounding_fdr1_458 phases=1 bus1=fdr1_458.4 bus2=fdr1_458.0 r=0.0 x=0.0
new reactor.loadbusgrounding_fdr1_502 phases=1 bus1=fdr1_502.4 bus2=fdr1_502.0 r=0.0 x=0.0
new reactor.loadbusgrounding_fdr1_522 phases=1 bus1=fdr1_522.4 bus2=fdr1_522.0 r=0.0 x=0.0
new reactor.loadbusgrounding_fdr1_539 phases=1 bus1=fdr1_539.4 bus2=fdr1_539.0 r=0.0 x=0.0
new reactor.loadbusgrounding_fdr1_556 phases=1 bus1=fdr1_556.4 bus2=fdr1_556.0 r=0.0 x=0.0
new reactor.loadbusgrounding_fdr1_562 phases=1 bus1=fdr1_562.4 bus2=fdr1_562.0 r=0.0 x=0.0
new reactor.loadbusgrounding_fdr1_563 phases=1 bus1=fdr1_563.4 bus2=fdr1_563.0 r=0.0 x=0.0
new reactor.loadbusgrounding_fdr1_611 phases=1 bus1=fdr1_611.4 bus2=fdr1_611.0 r=0.0 x=0.0
new reactor.loadbusgrounding_fdr1_614 phases=1 bus1=fdr1_614.4 bus2=fdr1_614.0 r=0.0 x=0.0
new reactor.loadbusgrounding_fdr1_619 phases=1 bus1=fdr1_619.4 bus2=fdr1_619.0 r=0.0 x=0.0
new reactor.loadbusgrounding_fdr1_629 phases=1 bus1=fdr1_629.4 bus2=fdr1_629.0 r=0.0 x=0.0
new reactor.loadbusgrounding_fdr1_639 phases=1 bus1=fdr1_639.4 bus2=fdr1_639.0 r=0.0 x=0.0
new reactor.loadbusgrounding_fdr1_676 phases=1 bus1=fdr1_676.4 bus2=fdr1_676.0 r=0.0 x=0.0
new reactor.loadbusgrounding_fdr1_682 phases=1 bus1=fdr1_682.4 bus2=fdr1_682.0 r=0.0 x=0.0
new reactor.loadbusgrounding_fdr1_688 phases=1 bus1=fdr1_688.4 bus2=fdr1_688.0 r=0.0 x=0.0
new reactor.loadbusgrounding_fdr1_701 phases=1 bus1=fdr1_701.4 bus2=fdr1_701.0 r=0.0 x=0.0
new reactor.loadbusgrounding_fdr1_702 phases=1 bus1=fdr1_702.4 bus2=fdr1_702.0 r=0.0 x=0.0
new reactor.loadbusgrounding_fdr1_755 phases=1 bus1=fdr1_755.4 bus2=fdr1_755.0 r=0.0 x=0.0
new reactor.loadbusgrounding_fdr1_778 phases=1 bus1=fdr1_778.4 bus2=fdr1_778.0 r=0.0 x=0.0
new reactor.loadbusgrounding_fdr1_780 phases=1 bus1=fdr1_780.4 bus2=fdr1_780.0 r=0.0 x=0.0
new reactor.loadbusgrounding_fdr1_785 phases=1 bus1=fdr1_785.4 bus2=fdr1_785.0 r=0.0 x=0.0
new reactor.loadbusgrounding_fdr1_813 phases=1 bus1=fdr1_813.4 bus2=fdr1_813.0 r=0.0 x=0.0
new reactor.loadbusgrounding_fdr1_817 phases=1 bus1=fdr1_817.4 bus2=fdr1_817.0 r=0.0 x=0.0
new reactor.loadbusgrounding_fdr1_835 phases=1 bus1=fdr1_835.4 bus2=fdr1_835.0 r=0.0 x=0.0
new reactor.loadbusgrounding_fdr1_860 phases=1 bus1=fdr1_860.4 bus2=fdr1_860.0 r=0.0 x=0.0
new reactor.loadbusgrounding_fdr1_861 phases=1 bus1=fdr1_861.4 bus2=fdr1_861.0 r=0.0 x=0.0
new reactor.loadbusgrounding_fdr1_886 phases=1 bus1=fdr1_886.4 bus2=fdr1_886.0 r=0.0 x=0.0
new reactor.loadbusgrounding_fdr1_896 phases=1 bus1=fdr1_896.4 bus2=fdr1_896.0 r=0.0 x=0.0
new reactor.loadbusgrounding_fdr1_898 phases=1 bus1=fdr1_898.4 bus2=fdr1_898.0 r=0.0 x=0.0
new reactor.loadbusgrounding_fdr1_899 phases=1 bus1=fdr1_899.4 bus2=fdr1_899.0 r=0.0 x=0.0
new reactor.loadbusgrounding_fdr1_900 phases=1 bus1=fdr1_900.4 bus2=fdr1_900.0 r=0.0 x=0.0
new reactor.loadbusgrounding_fdr1_906 phases=1 bus1=fdr1_906.4 bus2=fdr1_906.0 r=0.0 x=0.0
! ---------------------------------------------------------------------------
